# MF2K-MT3DMS LINKER FILE
#
OUTPUT_FILE_NAME "2022.10.20-FJMQF.hff"
OUTPUT_FILE_UNIT
OUTPUT_FILE_HEADER standard
OUTPUT_FILE_FORMAT unformatted
