#GMS MODFLOW Simulation
#07 August 2018
FREE
HDF5 1.0 -1 "1.h5" "Arrays/ibound1" 1 0 93562
HDF5 1.0 -1 "1.h5" "Arrays/ibound2" 1 0 93562
HDF5 1.0 -1 "1.h5" "Arrays/ibound3" 1 0 93562
-999.0
HDF5 1.0 -1 "1.h5" "Arrays/StartHead1" 1 0 93562
HDF5 1.0 -1 "1.h5" "Arrays/StartHead2" 1 0 93562
HDF5 1.0 -1 "1.h5" "Arrays/StartHead3" 1 0 93562
