MT3DSUP
BTN "2022.10.20-JMQF.btn"
FLO "..\2022.10.20-JMQF_MODFLOW\2022.10.20-JMQF.hff"
ADV "2022.10.20-JMQF.adv"
DSP "2022.10.20-JMQF.dsp"
SSM "2022.10.20-JMQF.ssm"
TOB "2022.10.20-JMQF.tob"
GCG "2022.10.20-JMQF.gcg"
CHK Y
OUT "2022.10.20-JMQF.out"
CON "2022.10.20-JMQF.con"
DSS "2022.10.20-JMQF.dss"
SPC "COD" 1 1
SPC "NH" 2 1
SPC "Ni" 3 1
SPC "JB" 4 1
RUNOPTIONS 0 "Undefined"
GMSTOB_OPTIONS 1 0
ORIG    498123.8 3594227.65 0.0
ROTZ 0
LAYER   0
      2.5000 
DMAT 1
MPOR 1 0 0.3
MLD 1 0 0.0
HTOPEQ1 1
REFTIME  s 0 1900 1 1 0 0 0
UNITS "m"	"d"	"mg"	"lb"	"mg/l"
