MT3DSUP
BTN "1.btn"
FLO "..\1_MODFLOW\1.hff"
ADV "1.adv"
DSP "1.dsp"
SSM "1.ssm"
TOB "1.tob"
GCG "1.gcg"
CHK Y
OUT "1.out"
CON "1.con"
DSS "1.dss"
SPC "COD" 1 1
SPC "NH3-N" 2 1
SPC "Cr" 3 1
RUNOPTIONS 0 "Undefined"
GMSTOB_OPTIONS 1 0
ORIG    616867.71 3526860.58 0.0
ROTZ 0
LAYER   1
      3.3333       3.3333       3.3333 
DMAT 1
MPOR 1 0 0.3
MLD 1 0 0.0
HTOPEQ1 1
REFTIME  s 0 1900 1 1 0 0 0
UNITS "m"	"d"	"mg"	"lb"	"mg/l"
